Version 4
SymbolType BLOCK
CIRCLE Normal -32 -32 32 32
TEXT 0 0 Center 2 NOISE
SYMATTR Prefix NOISE
SYMATTR ModelFile noise.lib
SYMATTR SpiceModel NOISE
PIN 0 32 BOTTOM 8
PINATTR PinName in
PINATTR SpiceOrder 1
PIN 0 -32 TOP 8
PINATTR PinName out
PINATTR SpiceOrder 2