** NOISE_Library **

.subckt noise_source_1 in out

** NOISE SOURCE **
noise_source_1 out in PWL file=noise_data_noise_source_1.csv

.ends noise_source_1

