Version 4
SHEET 1 1328 1812
WIRE -1216 768 -1392 768
WIRE -992 768 -1120 768
WIRE -800 768 -848 768
WIRE -640 768 -704 768
WIRE -624 768 -640 768
WIRE -448 768 -528 768
WIRE -288 768 -352 768
WIRE -272 768 -288 768
WIRE -80 768 -176 768
WIRE 144 768 16 768
WIRE -1392 784 -1392 768
WIRE -1216 800 -1248 800
WIRE -1104 800 -1120 800
WIRE -1248 832 -1248 800
WIRE -1104 832 -1104 800
WIRE -1104 832 -1248 832
WIRE -800 832 -800 800
WIRE -704 832 -704 800
WIRE -704 832 -800 832
WIRE -1920 848 -2208 848
WIRE -1872 848 -1920 848
WIRE -1648 848 -1776 848
WIRE -1632 848 -1648 848
WIRE -1456 848 -1488 848
WIRE -1440 848 -1456 848
WIRE -1296 848 -1344 848
WIRE -1104 848 -1104 832
WIRE -448 848 -448 800
WIRE -352 848 -352 800
WIRE -352 848 -448 848
WIRE -80 848 -80 800
WIRE 16 848 16 800
WIRE 16 848 -80 848
WIRE -704 864 -704 832
WIRE -1872 880 -1888 880
WIRE -1760 880 -1776 880
WIRE -352 880 -352 848
WIRE 16 880 16 848
WIRE -1760 928 -1760 880
WIRE -1328 928 -1360 928
WIRE -1648 944 -1648 848
WIRE -1456 944 -1456 848
WIRE 144 960 144 768
WIRE -1328 976 -1328 928
WIRE -1296 976 -1296 848
WIRE -1984 1008 -2048 1008
WIRE -1920 1008 -1920 848
WIRE 144 1088 144 1040
WIRE -2128 1104 -2128 1008
WIRE -2000 1104 -2128 1104
WIRE -1984 1104 -2000 1104
WIRE -2000 1120 -2000 1104
WIRE -1920 1120 -1920 1104
WIRE -1888 1120 -1888 880
WIRE -1888 1120 -1920 1120
WIRE -1360 1136 -1360 928
WIRE -1328 1136 -1328 1072
WIRE -1328 1136 -1360 1136
WIRE -1296 1136 -1296 1072
WIRE -1184 1136 -1296 1136
WIRE -1024 1136 -1088 1136
WIRE -1008 1136 -1024 1136
WIRE -864 1136 -928 1136
WIRE -1920 1152 -1920 1120
WIRE -1360 1152 -1360 1136
WIRE -1184 1168 -1216 1168
WIRE -864 1200 -864 1136
WIRE -1216 1216 -1216 1168
WIRE -1088 1216 -1088 1168
WIRE -1088 1216 -1216 1216
WIRE -1088 1232 -1088 1216
FLAG -1920 1152 0
FLAG -2000 1120 0
FLAG -1760 928 0
FLAG -1360 1152 0
FLAG -864 1200 0
FLAG -1088 1232 0
FLAG -1104 848 0
FLAG -704 864 0
FLAG -352 880 0
FLAG 16 880 0
FLAG 144 1088 0
FLAG -640 848 0
FLAG -288 848 0
FLAG -1024 1216 0
FLAG -2208 928 0
FLAG -2208 768 0
SYMBOL snspdWithPhotonPort -1920 1056 R0
SYMATTR InstName U1
SYMBOL tline -1824 864 R0
SYMATTR InstName T1
SYMBOL tline -1312 1024 R90
SYMATTR InstName T2
SYMBOL tline -1136 1152 R0
SYMATTR InstName T3
SYMBOL current -928 1136 R90
WINDOW 0 -32 40 VBottom 2
WINDOW 3 32 40 VTop 2
WINDOW 123 0 0 Left 2
WINDOW 39 0 0 Left 2
SYMATTR InstName I1
SYMATTR Value 15µ
SYMBOL tline -1168 784 R0
SYMATTR InstName T5
SYMBOL tline -752 784 R0
SYMATTR InstName T6
SYMBOL tline -400 784 R0
SYMATTR InstName T7
SYMBOL tline -32 784 R0
SYMATTR InstName T8
SYMBOL res 128 944 R0
SYMATTR InstName R2
SYMATTR Value 50
SYMBOL current -2128 1008 R270
WINDOW 0 32 40 VTop 2
WINDOW 3 -189 50 VBottom 2
WINDOW 123 0 0 Left 2
WINDOW 39 0 0 Left 2
SYMATTR InstName I2
SYMATTR Value PULSE(0 1u 20n 10p 10p 100p 160n 10)
SYMBOL biasTee -1392 848 R90
WINDOW 39 -104 150 VBottom 2
SYMATTR InstName U2
SYMBOL attenuator -928 768 R0
SYMATTR InstName U3
SYMATTR Value attn=10
SYMBOL LNA -576 768 R0
SYMATTR InstName U4
SYMBOL LNA -224 768 R0
SYMATTR InstName U5
SYMBOL res -624 864 R180
WINDOW 0 36 76 Left 2
WINDOW 3 36 40 Left 2
SYMATTR InstName R1
SYMATTR Value 50
SYMBOL res -272 864 R180
WINDOW 0 36 76 Left 2
WINDOW 3 36 40 Left 2
SYMATTR InstName R3
SYMATTR Value 50
SYMBOL res -1008 1232 R180
WINDOW 0 36 76 Left 2
WINDOW 3 36 40 Left 2
SYMATTR InstName R4
SYMATTR Value 50
SYMBOL attenuator -1568 848 R0
SYMATTR InstName U6
SYMATTR Value attn=1
SYMBOL noise_source_1 -2208 848 R0
SYMATTR InstName U7
SYMBOL Res -2176 672 R0
SYMATTR InstName R5
SYMATTR Value 1
TEXT -2328 1256 Left 2 !.tran 0 1000n 0 10p
